$# LS-DYNA Keyword file created by LS-PrePost 4.0 - 28Jan2013(19:00)
$# Created on Mar-07-2019 (09:47:11)
$$ HM_OUTPUT_DECK created 15:54:48 03-06-2019 by HyperMesh Version 13.0.0.119
$$ Ls-dyna Input Deck Generated by HyperMesh Version  : 13.0.0.119
$$ Generated using HyperMesh-Ls-dyna 971_R6.1 Template Version : 13.0
*KEYWORD
*PARAMETER
$$ HM_OUTPUT_DECK created 15:54:48 03-06-2019 by HyperMesh Version 13.0.0.119
$$ Ls-dyna Input Deck Generated by HyperMesh Version  : 13.0.0.119
$$ Generated using HyperMesh-Ls-dyna 971_R6.1 Template Version : 13.0
$$ HM_OUTPUT_DECK created 15:54:48 03-06-2019 by HyperMesh Version 13.0.0.119
$$ Ls-dyna Input Deck Generated by HyperMesh Version  : 13.0.0.119
$$ Generated using HyperMesh-Ls-dyna 971_R6.1 Template Version : 13.0
R dtcurv    0.001000                                                                                                                                                                                                                                            
R dtplot    0.020000                                                            
$$ HM_OUTPUT_DECK created 15:54:48 03-06-2019 by HyperMesh Version 13.0.0.119
$$ Ls-dyna Input Deck Generated by HyperMesh Version  : 13.0.0.119
$$ Generated using HyperMesh-Ls-dyna 971_R6.1 Template Version : 13.0
*TITLE
$# title
LS-DYNA keyword deck by LS-PrePost
*CONTROL_ACCURACY
$$ OSU           INN    PIDOSU
$#     osu       inn    pidosu
         0         2         0
*CONTROL_BULK_VISCOSITY
$$      Q1        Q2        IBQ
$#      q1        q2      type     btype
  1.500000  0.060000        -1         0
*CONTROL_CONTACT
$$  SLSFAC    RWPNAL    ISLCHK    SHLTHK    PENOPT    THKCHG     ORIEN    ENMASS
$#  slsfac    rwpnal    islchk    shlthk    penopt    thkchg     orien    enmass
  0.100000     0.000         2         0         1         1         1         0
$#  usrstr    usrfrc     nsbcs    interm     xpene     ssthk      ecdt   tiedprj
         0         0        10         0  4.000000         0         0         0
$#   sfric     dfric       edc       vfc        th     th_sf    pen_sf
     0.000     0.000     0.000     0.000     0.000     0.000     0.000
$#  ignore    frceng   skiprwg    outseg   spotstp   spotdel   spothin
         0         0         0         0         0         0     0.000
$#    isym    nserod    rwgaps    rwgdth     rwksf      icov    swradf    ithoff
         0         0         1     0.000  1.000000         0     0.000         0
$#  shledg    pstiff    ithcnt    tdcnof     ftall    unused    shltrw
         0         0         0         0         0               0.000
*CONTROL_CPU
$$  CPUTIM
$#  cputim
     0.000
*CONTROL_DYNAMIC_RELAXATION
$$  NRCYCK     DRTOL    DRFCTR    DRTERM    TSSFDR    IRELAL     EDTTL    IDRFLG
$#  nrcyck     drtol    drfctr    drterm    tssfdr    irelal     edttl    idrflg
       250  0.001000  0.995000     0.000     0.000         0  0.040000         0
*CONTROL_ENERGY
$$    HGEN      RWEN    SLNTEN     RYLEN
$#    hgen      rwen    slnten     rylen
         2         2         2         2
*CONTROL_HOURGLASS
$$     IHQ        QH
$#     ihq        qh
         4  0.050000
*CONTROL_OUTPUT
$$   NPOPT    NEECHO    NREFUP    IACCOP     OPIFS    IPNINT    IKEDIT
$#   npopt    neecho    nrefup    iaccop     opifs    ipnint    ikedit    iflush
         0         0         0         0  0.100000         0       100      5000
$#   iprtf    ierode     tet10    msgmax    ipcurv
         2         1         1         0         0
*CONTROL_PARALLEL
$$    NCPU    NUMRHS      ACCU
$#    ncpu    numrhs     const      para
         0         0         1         0
*CONTROL_SHELL
$$  WRPANG     ESORT     IRNXX    ISTUPD    THEORY       BWC     MITER      PROJ
$#  wrpang     esort     irnxx    istupd    theory       bwc     miter      proj
 20.000000         1        -1         1         2         1         1         0
$$ ROTASCL    INTGRD    LAMSHT    CSTYP6    THSHEL
$# rotascl    intgrd    lamsht    cstyp6    tshell
  1.000000         0         0         1         0
$$ PSSTUPD   SIDT4TU     CNTCO    ITSFLG    IRQUAD
$# psstupd   sidt4tu     cntco    itsflg    irquad
         0         0         0         0         2
$$  NFAIL1    NFAIL4   PSNFAIL    KEEPCS     DELFR   DRCPSID    DRCPRM
$#  nfail1    nfail4   psnfail    keepcs     delfr   drcpsid    drcprm
         0         0         0         0         0         0     0.000
*CONTROL_STRUCTURED
*CONTROL_TERMINATION
$$  ENDTIM    ENDCYC     DTMIN    ENDENG    ENDMAS
$#  endtim    endcyc     dtmin    endeng    endmas
 30.000000         0     0.000     0.000     0.000
*CONTROL_TIMESTEP
$$  DTINIT    TSSFAC      ISDO    TSLIMT     DT2MS      LCTM     ERODE     MSIST
$#  dtinit    tssfac      isdo    tslimt     dt2ms      lctm     erode     ms1st
 1.0000E-4  0.900000         0     0.000 -5.000E-4         0         0         0
$#  dt2msf   dt2mslc     imscl    unused    unused     rmscl
     0.000         0         0                         0.000
$$Card will be output. No editable fields
$$
$$DATABASE_OPTION -- Control Cards for ASCII output
*DATABASE_ELOUT
$$      DT    BINARY      LCUR      IOPT
$#      dt    binary      lcur     ioopt   option1   option2   option3   option4
 30.000000         1         0         1         0         0         0         0
*DATABASE_GLSTAT
$$      DT    BINARY      LCUR      IOPT
$#      dt    binary      lcur     ioopt
  0.100000         1         0         1
*DATABASE_MATSUM
$$      DT    BINARY      LCUR      IOPT
$#      dt    binary      lcur     ioopt
  0.100000         1         0         1
*DATABASE_BINARY_D3DUMP
$$ DT/CYCL        NR
$#      dt      lcdt      beam     npltc    psetid
     0.000         0         0         0         0
*DATABASE_BINARY_D3PLOT
$$ DT/CYCL      LCDT      BEAM     NPLTC    PSETID
$#      dt      lcdt      beam     npltc    psetid
  2.000000         0         0         0         0
$#   ioopt
         0
*DATABASE_BINARY_D3THDT
$$ DT/CYCL      LCID
$#      dt      lcdt      beam     npltc    psetid
 10.000000         0         0         0         0
*DATABASE_BINARY_INTFOR
$$ DT/CYCL      LCID
$#      dt      lcdt      beam     npltc    psetid
  0.001500         0         0         0         0
*DATABASE_BINARY_RUNRSF
$$ DT/CYCL      LCDT/NR
$#      dt        nr      beam     npltc    psetid
     0.000         0         0         0         0
*DATABASE_BINARY_XTFILE
$$ DT/CYCL
$#      dt      lcdt      beam     npltc    psetid
 1.0000E-4         0         0         0         0
*DATABASE_EXTENT_AVS
$$   VTYPE      COMP
$#   vtype      comp
         4         0
*DATABASE_EXTENT_BINARY
$$   NEIPH     NEIPS    MAXINT    STRFLG    SIGFLG    EPSFLG    RLTFLG    ENGFLG
$#   neiph     neips    maxint    strflg    sigflg    epsflg    rltflg    engflg
         0         0         1         1         1         2         1         2
$$  CMPFLG    IEVERP    BEAMIP     DCOMP      SHGE     STSSZ    N3THDT   IALEMAT
$#  cmpflg    ieverp    beamip     dcomp      shge     stssz    n3thdt   ialemat
         0         1         0         1         2         2         1         1
$$ NINTSLD   PKP_SEN      SCLP     HYDRO     MSSCL     THERM    INTOUT    NODOUT
$# nintsld   pkp_sen      sclp    unused     msscl     therm    intout    nodout
         0         0     0.000                   0         0STRESS    STRESS
$$    DTDT
$#    dtdt    resplt
         0         0
*DATABASE_HISTORY_SHELL
$HMNAME OUTPUTBLOCKS       1ELEM
$#     id1       id2       id3       id4       id5       id6       id7       id8
     15598         1         2         3         4         5         6         7
         8         9        10        11        12        13        14        15
        16        17        18        19        20        21        22        23
        24        25        26        27        28        29        30        31
        32        33        34        35        36        37        38        39
        40        41        42        43        44        45        46        47
        48        49        50        51        52        53        54        55
        56        57        58        59        60        61        62        63
        64        65        66        67        68        69        70        71
        72        73        74        75        76        77        78        79
        80        81        82        83        84        85        86        87
        88        89        90        91        92        93        94        95
        96        97        98        99       100       101       102       103
       104       105       106       107       108       109       110       111
       112       113       114       115       116       117       118       119
       120       121       122       123       124       125       126       127
       128       129       130       131       132       133       134       135
       136       137       138       139       140       141       142       143
       144       145       146       147       148       149       150       151
       152       153       154       155       156     15599       157       158
$ ... 1891 like lines cut
*BOUNDARY_PRESCRIBED_MOTION_RIGID
$HMNAME LOADCOLS       1auto1
$HWCOLOR LOADCOLS       1      11
$#     pid       dof       vad      lcid        sf       vid     death     birth
         5         1         2         4  1.000000         0     0.000     0.000
$#     pid       dof       vad      lcid        sf       vid     death     birth
         5         2         2         4  1.000000         0     0.000     0.000
$#     pid       dof       vad      lcid        sf       vid     death     birth
         5         3         2         4  1.000000         0     0.000     0.000
$#     pid       dof       vad      lcid        sf       vid     death     birth
         5         5         2         4  1.000000         0     0.000     0.000
$#     pid       dof       vad      lcid        sf       vid     death     birth
         5         6         2         4  1.000000         0     0.000     0.000
$#     pid       dof       vad      lcid        sf       vid     death     birth
         5         7         2         4  1.000000         0     0.000     0.000
*LOAD_NODE_POINT
$HMNAME LOADCOLS       1auto1
$HWCOLOR LOADCOLS       1      11
$#     nid       dof      lcid        sf       cid        m1        m2        m3
      1284         2         5  1.000000         0         0         0         0
      1285         2         5  1.000000         0         0         0         0
      1286         2         5  1.000000         0         0         0         0
      1287         2         5  1.000000         0         0         0         0
      1288         2         5  1.000000         0         0         0         0
      1289         2         5  1.000000         0         0         0         0
      1290         2         5  1.000000         0         0         0         0
      1291         2         5  1.000000         0         0         0         0
      1292         2         5  1.000000         0         0         0         0
      1293         2         5  1.000000         0         0         0         0
*CONTACT_2D_AUTOMATIC_SINGLE_SURFACE_ID
$#     cid                                                                 title
         01All to all
$#    sids      sidm     sfact      freq        fs        fd        dc     membs
         0        17  0.500000         0  0.200000     0.000     0.000         0
$#  tbirth    tdeath       sos       som       nds       ndm       cof      init
     0.000     0.000     0.000     0.000         0         0         1         0
*SET_PART_LIST_TITLE
Contacting parts
$#     sid       da1       da2       da3       da4    solver
        17     0.000     0.000     0.000     0.000MECH
$#    pid1      pid2      pid3      pid4      pid5      pid6      pid7      pid8
         1         2         3         4         5         7         0         0
*PART
$HWCOLOR COMPS       1       7
$# title
left
$#     pid     secid       mid     eosid      hgid      grav    adpopt      tmid
         1         1         4         0         0         0         0         0
*SECTION_SHELL
$HMNAME PROPS       1SectShll_1
$#   secid    elform      shrf       nip     propt   qr/irid     icomp     setyp
         1        13     0.000         1         1         0         0         1
$#      t1        t2        t3        t4      nloc     marea      idof    edgset
  1.000000  1.000000  1.000000  1.000000     0.000     0.000     0.000         0
*MAT_PIECEWISE_LINEAR_PLASTICITY_TITLE
Aluminum
$#     mid        ro         e        pr      sigy      etan      fail      tdel
         4 2.8000E-6 70.000000  0.300000     0.000     0.000     0.000     0.000
$#       c         p      lcss      lcsr        vp
     0.000     0.000         2         0     0.000
$$ HM Entries in Stress-Strain Curve =         8
$#    eps1      eps2      eps3      eps4      eps5      eps6      eps7      eps8
     0.000     0.000     0.000     0.000     0.000     0.000     0.000     0.000
$#     es1       es2       es3       es4       es5       es6       es7       es8
     0.000     0.000     0.000     0.000     0.000     0.000     0.000     0.000
*PART
$HWCOLOR COMPS       2      54
$# title
right
$#     pid     secid       mid     eosid      hgid      grav    adpopt      tmid
         2         1         4         0         0         0         0         0
*PART
$HWCOLOR COMPS       3      59
$# title
right_bar
$#     pid     secid       mid     eosid      hgid      grav    adpopt      tmid
         3         1         4         0         0         0         0         0
*PART
$HWCOLOR COMPS       4      29
$# title
left_bar
$#     pid     secid       mid     eosid      hgid      grav    adpopt      tmid
         4         1         4         0         0         0         0         0
*PART
$HWCOLOR COMPS       5      11
$# title
ground
$#     pid     secid       mid     eosid      hgid      grav    adpopt      tmid
         5         2         2         0         0         0         0         0
*SECTION_SHELL
$HMNAME PROPS       2SectShll_2
$#   secid    elform      shrf       nip     propt   qr/irid     icomp     setyp
         2        13     0.000         1         1         0         0         1
$#      t1        t2        t3        t4      nloc     marea      idof    edgset
  1.000000  1.000000  1.000000  1.000000     0.000     0.000     0.000         0
*MAT_RIGID_TITLE
base
$#     mid        ro         e        pr         n    couple         m     alias
         2 7.8000E-6 210.00000  0.300000     0.000     0.000     0.000          
$#     cmo      con1      con2
  1.000000         0         0
$# lco or a1      a2        a3        v1        v2        v3
     0.000     0.000     0.000     0.000     0.000     0.000
*PART
$HWCOLOR COMPS       7       3
$# title
load
$#     pid     secid       mid     eosid      hgid      grav    adpopt      tmid
         7         2         1         0         0         0         0         0
$---+----1----+----2----+----3----+----4----+----5----+----6----+----7----+----8
$                                                                              $
$                                 RIGID PARTS                                  $
$                                                                              $
$---+----1----+----2----+----3----+----4----+----5----+----6----+----7----+----8
*MAT_RIGID_TITLE
rigid
$#     mid        ro         e        pr         n    couple         m     alias
         1 7.8000E-6 210.00000  0.300000     0.000     0.000     0.000          
$#     cmo      con1      con2
  1.000000         6         7
$# lco or a1      a2        a3        v1        v2        v3
     0.000     0.000     0.000     0.000     0.000     0.000
*PART
$HWCOLOR COMPS       8      46
$# title
merge_right
$#     pid     secid       mid     eosid      hgid      grav    adpopt      tmid
         8         1         4         0         0         0         0         0
$---+----1----+----2----+----3----+----4----+----5----+----6----+----7----+----8
$                                                                              $
$                              DEFORMABLE PARTS                                $
$                                                                              $
$---+----1----+----2----+----3----+----4----+----5----+----6----+----7----+----8
*MAT_PIECEWISE_LINEAR_PLASTICITY_TITLE
Steel
$#     mid        ro         e        pr      sigy      etan      fail      tdel
         3 7.8000E-6 210.00000  0.300000     0.000     0.000     0.000     0.000
$#       c         p      lcss      lcsr        vp
     0.000     0.000         1         0     0.000
$$ HM Entries in Stress-Strain Curve =         8
$#    eps1      eps2      eps3      eps4      eps5      eps6      eps7      eps8
     0.000     0.000     0.000     0.000     0.000     0.000     0.000     0.000
$#     es1       es2       es3       es4       es5       es6       es7       es8
     0.000     0.000     0.000     0.000     0.000     0.000     0.000     0.000
*DEFINE_CURVE_TITLE
Steel
$#    lcid      sidr       sfa       sfo      offa      offo    dattyp
         1         0     0.000     0.000     0.000     0.000         0
$#                a1                  o1
               0.000            1.500000
            0.067000            1.600000
            0.100000            1.620000
*DEFINE_CURVE_TITLE
Aluminum
$#    lcid      sidr       sfa       sfo      offa      offo    dattyp
         2         0     0.000     0.000     0.000     0.000         0
$#                a1                  o1
               0.000            0.073000
            0.040000            0.130000
            0.100000            0.170000
            0.200000            0.200000
*DEFINE_CURVE_TITLE
Tool motion plunger
$#    lcid      sidr       sfa       sfo      offa      offo    dattyp
         3         0     0.000     0.000     0.000     0.000         0
$#                a1                  o1
               0.000               0.000
           30.000000            6.000000
*DEFINE_CURVE_TITLE
Tool motion holder
$#    lcid      sidr       sfa       sfo      offa      offo    dattyp
         4         0     0.000     0.000     0.000     0.000         0
$#                a1                  o1
               0.000               0.000
           30.000000               0.000
*DEFINE_CURVE
$HMNAME CURVES       5LOAD_force
$HWCOLOR CURVES       5      11
$HMCURVE     1    3 LOAD_force
$#    lcid      sidr       sfa       sfo      offa      offo    dattyp
         5         0  1.000000  1.000000     0.000     0.000         0
$#                a1                  o1
               0.000               0.000
           30.000000            0.002000
*SET_NODE_LIST
$HMSET
$HMNAME SETS       1rigid20436nodeset
$#     sid       da1       da2       da3       da4    solver
         1     0.000     0.000     0.000     0.000MECH
$#    nid1      nid2      nid3      nid4      nid5      nid6      nid7      nid8
      1053       953     16619     16620     16621     16622     16623         0
*SET_NODE_LIST
$HMSET
$HMNAME SETS       2rigid20437nodeset
$#     sid       da1       da2       da3       da4    solver
         2     0.000     0.000     0.000     0.000MECH
$#    nid1      nid2      nid3      nid4      nid5      nid6      nid7      nid8
      1052       949     16624     16625     16626     16627     16628     16629
*SET_NODE_LIST
$HMSET
$HMNAME SETS       3rigid20438nodeset
$#     sid       da1       da2       da3       da4    solver
         3     0.000     0.000     0.000     0.000MECH
$#    nid1      nid2      nid3      nid4      nid5      nid6      nid7      nid8
      1051       944     16630     16631     16632     16633     16634     16635
*SET_NODE_LIST
$HMSET
$HMNAME SETS       4rigid20439nodeset
$#     sid       da1       da2       da3       da4    solver
         4     0.000     0.000     0.000     0.000MECH
$#    nid1      nid2      nid3      nid4      nid5      nid6      nid7      nid8
      1050       945      1033     16636     16637     16638     16639         0
*SET_NODE_LIST
$HMSET
$HMNAME SETS       5rigid20440nodeset
$#     sid       da1       da2       da3       da4    solver
         5     0.000     0.000     0.000     0.000MECH
$#    nid1      nid2      nid3      nid4      nid5      nid6      nid7      nid8
      1049       445     16813     16814     16815     16816     16817         0
*SET_NODE_LIST
$HMSET
$HMNAME SETS       6rigid20441nodeset
$#     sid       da1       da2       da3       da4    solver
         6     0.000     0.000     0.000     0.000MECH
$#    nid1      nid2      nid3      nid4      nid5      nid6      nid7      nid8
      1048       441     16807     16808     16809     16810     16811     16812
*SET_NODE_LIST
$HMSET
$HMNAME SETS       7rigid20442nodeset
$#     sid       da1       da2       da3       da4    solver
         7     0.000     0.000     0.000     0.000MECH
$#    nid1      nid2      nid3      nid4      nid5      nid6      nid7      nid8
      1047       436     16801     16802     16803     16804     16805     16806
*SET_NODE_LIST
$HMSET
$HMNAME SETS       8rigid20443nodeset
$#     sid       da1       da2       da3       da4    solver
         8     0.000     0.000     0.000     0.000MECH
$#    nid1      nid2      nid3      nid4      nid5      nid6      nid7      nid8
      1046       437      1036     16797     16798     16799     16800         0
*SET_NODE_LIST
$HMSET
$HMNAME SETS       9rigid20444nodeset
$#     sid       da1       da2       da3       da4    solver
         9     0.000     0.000     0.000     0.000MECH
$#    nid1      nid2      nid3      nid4      nid5      nid6      nid7      nid8
      1045       511      1035     16948     16949     16950     16951         0
*SET_NODE_LIST
$HMSET
$HMNAME SETS      10rigid20445nodeset
$#     sid       da1       da2       da3       da4    solver
        10     0.000     0.000     0.000     0.000MECH
$#    nid1      nid2      nid3      nid4      nid5      nid6      nid7      nid8
      1044       510     16943     16944     16945     16946     16947         0
*SET_NODE_LIST
$HMSET
$HMNAME SETS      11rigid20446nodeset
$#     sid       da1       da2       da3       da4    solver
        11     0.000     0.000     0.000     0.000MECH
$#    nid1      nid2      nid3      nid4      nid5      nid6      nid7      nid8
      1043       507     16937     16938     16939     16940     16941     16942
*SET_NODE_LIST
$HMSET
$HMNAME SETS      12rigid20447nodeset
$#     sid       da1       da2       da3       da4    solver
        12     0.000     0.000     0.000     0.000MECH
$#    nid1      nid2      nid3      nid4      nid5      nid6      nid7      nid8
      1042       508     16932     16933     16934     16935     16936         0
*SET_NODE_LIST
$HMSET
$HMNAME SETS      13rigid20448nodeset
$#     sid       da1       da2       da3       da4    solver
        13     0.000     0.000     0.000     0.000MECH
$#    nid1      nid2      nid3      nid4      nid5      nid6      nid7      nid8
      1041      1019      1024     16485     16486     16487     16488         0
*SET_NODE_LIST
$HMSET
$HMNAME SETS      14rigid20449nodeset
$#     sid       da1       da2       da3       da4    solver
        14     0.000     0.000     0.000     0.000MECH
$#    nid1      nid2      nid3      nid4      nid5      nid6      nid7      nid8
      1040      1018     16489     16490     16491     16492     16493         0
*SET_NODE_LIST
$HMSET
$HMNAME SETS      15rigid20450nodeset
$#     sid       da1       da2       da3       da4    solver
        15     0.000     0.000     0.000     0.000MECH
$#    nid1      nid2      nid3      nid4      nid5      nid6      nid7      nid8
      1039      1015     16494     16495     16496     16497     16498     16499
*SET_NODE_LIST
$HMSET
$HMNAME SETS      16rigid20451nodeset
$#     sid       da1       da2       da3       da4    solver
        16     0.000     0.000     0.000     0.000MECH
$#    nid1      nid2      nid3      nid4      nid5      nid6      nid7      nid8
      1038      1016     16500     16501     16502     16503     16504         0
*CONSTRAINED_NODAL_RIGID_BODY
$HMNAME COMPS       6RBE2
$HWCOLOR COMPS       6       3
$#     pid       cid      nsid     pnode      iprt    drflag    rrflag
         1         0         1         0         0         0         0
*CONSTRAINED_NODAL_RIGID_BODY
$HMNAME COMPS       6RBE2
$HWCOLOR COMPS       6       3
$#     pid       cid      nsid     pnode      iprt    drflag    rrflag
         2         0         2         0         0         0         0
*CONSTRAINED_NODAL_RIGID_BODY
$HMNAME COMPS       6RBE2
$HWCOLOR COMPS       6       3
$#     pid       cid      nsid     pnode      iprt    drflag    rrflag
         3         0         3         0         0         0         0
*CONSTRAINED_NODAL_RIGID_BODY
$HMNAME COMPS       6RBE2
$HWCOLOR COMPS       6       3
$#     pid       cid      nsid     pnode      iprt    drflag    rrflag
         4         0         4         0         0         0         0
*CONSTRAINED_NODAL_RIGID_BODY
$HMNAME COMPS       6RBE2
$HWCOLOR COMPS       6       3
$#     pid       cid      nsid     pnode      iprt    drflag    rrflag
         5         0         5         0         0         0         0
*CONSTRAINED_NODAL_RIGID_BODY
$HMNAME COMPS       6RBE2
$HWCOLOR COMPS       6       3
$#     pid       cid      nsid     pnode      iprt    drflag    rrflag
         6         0         6         0         0         0         0
*CONSTRAINED_NODAL_RIGID_BODY
$HMNAME COMPS       6RBE2
$HWCOLOR COMPS       6       3
$#     pid       cid      nsid     pnode      iprt    drflag    rrflag
         7         0         7         0         0         0         0
*CONSTRAINED_NODAL_RIGID_BODY
$HMNAME COMPS       6RBE2
$HWCOLOR COMPS       6       3
$#     pid       cid      nsid     pnode      iprt    drflag    rrflag
         8         0         8         0         0         0         0
*CONSTRAINED_NODAL_RIGID_BODY
$HMNAME COMPS       6RBE2
$HWCOLOR COMPS       6       3
$#     pid       cid      nsid     pnode      iprt    drflag    rrflag
         9         0         9         0         0         0         0
*CONSTRAINED_NODAL_RIGID_BODY
$HMNAME COMPS       6RBE2
$HWCOLOR COMPS       6       3
$#     pid       cid      nsid     pnode      iprt    drflag    rrflag
        10         0        10         0         0         0         0
*CONSTRAINED_NODAL_RIGID_BODY
$HMNAME COMPS       6RBE2
$HWCOLOR COMPS       6       3
$#     pid       cid      nsid     pnode      iprt    drflag    rrflag
        11         0        11         0         0         0         0
*CONSTRAINED_NODAL_RIGID_BODY
$HMNAME COMPS       6RBE2
$HWCOLOR COMPS       6       3
$#     pid       cid      nsid     pnode      iprt    drflag    rrflag
        12         0        12         0         0         0         0
*CONSTRAINED_NODAL_RIGID_BODY
$HMNAME COMPS       6RBE2
$HWCOLOR COMPS       6       3
$#     pid       cid      nsid     pnode      iprt    drflag    rrflag
        13         0        13         0         0         0         0
*CONSTRAINED_NODAL_RIGID_BODY
$HMNAME COMPS       6RBE2
$HWCOLOR COMPS       6       3
$#     pid       cid      nsid     pnode      iprt    drflag    rrflag
        14         0        14         0         0         0         0
*CONSTRAINED_NODAL_RIGID_BODY
$HMNAME COMPS       6RBE2
$HWCOLOR COMPS       6       3
$#     pid       cid      nsid     pnode      iprt    drflag    rrflag
        15         0        15         0         0         0         0
*CONSTRAINED_NODAL_RIGID_BODY
$HMNAME COMPS       6RBE2
$HWCOLOR COMPS       6       3
$#     pid       cid      nsid     pnode      iprt    drflag    rrflag
        16         0        16         0         0         0         0
*ELEMENT_SHELL
$#   eid     pid      n1      n2      n3      n4      n5      n6      n7      n8
       1       1    1335   16794   16793    1336       0       0       0       0
       2       1    1336   16793   16791    1337       0       0       0       0
       3       1    1337   16791   16792    1338       0       0       0       0
       4       1    1338   16792   16786    1339       0       0       0       0
       5       1    1339   16786   16790    1340       0       0       0       0
       6       1    1340   16790   16789    1341       0       0       0       0
       7       1    1341   16789   16787    1342       0       0       0       0
       8       1    1342   16787   16788    1343       0       0       0       0
       9       1    1343   16788   16776    1344       0       0       0       0
      10       1    1344   16776   16785    1345       0       0       0       0
      11       1    1345   16785   16784    1346       0       0       0       0
      12       1    1346   16784   16782    1347       0       0       0       0
      13       1    1347   16782   16783    1348       0       0       0       0
      14       1    1348   16783   16777    1349       0       0       0       0
      15       1    1349   16777   16781    1350       0       0       0       0
      16       1    1350   16781   16780    1351       0       0       0       0
      17       1    1351   16780   16778    1352       0       0       0       0
      18       1    1352   16778   16779    1353       0       0       0       0
      19       1    1353   16779   16757    1354       0       0       0       0
      20       1    1354   16757   16775    1355       0       0       0       0
$ ... 16486 like lines cut
*NODE
$#   nid               x               y               z      tc      rc
       1           0.000           0.000           0.000       0       0
       2           0.000           0.000           0.000       0       0
       3           0.000           0.000           0.000       0       0
       4       49.534801  -2.320000e-004   4.240000e-004       0       0
       5       50.333401  -2.320000e-004   4.240000e-004       0       0
       6       50.333401       -0.666900   4.240000e-004       0       0
       7       49.522900       -0.678979   4.240000e-004       0       0
       8       50.333401       -1.333566   4.240000e-004       0       0
       9       49.509998       -1.367767   4.240000e-004       0       0
      10       48.736198  -2.320000e-004   4.240000e-004       0       0
      11       48.716801       -0.679071   4.240000e-004       0       0
      12       50.333401       -2.000232   4.240000e-004       0       0
      13       49.504902       -2.089326   4.240000e-004       0       0
      14       48.697498       -1.368183   4.240000e-004       0       0
      15       47.937599  -2.320000e-004   4.240000e-004       0       0
      16       47.912498       -0.671716   4.240000e-004       0       0
      17       50.333401       -2.821662   4.240000e-004       0       0
      18       49.503201       -2.851213   4.240000e-004       0       0
      19       48.670399       -2.089861   4.240000e-004       0       0
      20       47.888199       -1.341487   4.240000e-004       0       0
$ ... 17086 like lines cut
*END
